
#######################################################################
#
#                 Cambridge Crystallographic Data Centre
#                                CCDC 
#
#######################################################################
#
# If this CIF has been generated from an entry in the Cambridge 
# Structural Database, then it will include bibliographic, chemical, 
# crystal, experimental, refinement or atomic coordinate data resulting 
# from the CCDC's data processing and validation procedures.
#
#######################################################################

data_Lin1
_symmetry_cell_setting           tetragonal
_symmetry_space_group_name_H-M   'P1'
_symmetry_Int_Tables_number      131
_space_group_name_Hall           'P1'
loop_
_symmetry_equiv_pos_site_id
_symmetry_equiv_pos_as_xyz
1 x,y,z

_cell_length_a                   12.2480(9)
_cell_length_b                   12.2480(9)
_cell_length_c                   22.8767(17)
_cell_angle_alpha                90.00
_cell_angle_beta                 90.00
_cell_angle_gamma                90.00
_cell_volume                     3431.81
loop_
_atom_site_label
_atom_site_type_symbol
_atom_site_fract_x
_atom_site_fract_y
_atom_site_fract_z
C1 C 0.4004(5) 0.5000 0.2072(3)
O1 O 0.1131(3) 0.4075(3) 0.05953(15)
C3 C 0.5000 0.5000 0.2500
C4 C 0.1449(6) 0.5000 0.0764(3)
C6 C 0.3608(4) 0.4039(4) 0.18525(19)
H6 H 0.3889 0.3380 0.1987
C7 C 0.2800(4) 0.4038(4) 0.1436(2)
H7 H 0.2535 0.3377 0.1296
C8 C 0.2375(5) 0.5000 0.1223(2)
C1 C 0.5996(5) 0.5000 0.2072(3)
O1 O 0.8869(3) 0.5925(3) 0.05953(15)
C4 C 0.8551(6) 0.5000 0.0764(3)
C6 C 0.6392(4) 0.5961(4) 0.18525(19)
H6 H 0.6111 0.6620 0.1987
C7 C 0.7200(4) 0.5962(4) 0.1436(2)
H7 H 0.7465 0.6623 0.1296
C8 C 0.7625(5) 0.5000 0.1223(2)
C1 C 0.5000 0.4004(5) 0.2928(3)
O1 O 0.4075(3) 0.1131(3) 0.44047(15)
C4 C 0.5000 0.1449(6) 0.4236(3)
C6 C 0.4039(4) 0.3608(4) 0.31475(19)
H6 H 0.3380 0.3889 0.3013
C7 C 0.4038(4) 0.2800(4) 0.3564(2)
H7 H 0.3377 0.2535 0.3704
C8 C 0.5000 0.2375(5) 0.3777(2)
C1 C 0.5000 0.5996(5) 0.2928(3)
O1 O 0.5925(3) 0.8869(3) 0.44047(15)
C4 C 0.5000 0.8551(6) 0.4236(3)
C6 C 0.5961(4) 0.6392(4) 0.31475(19)
H6 H 0.6620 0.6111 0.3013
C7 C 0.5962(4) 0.7200(4) 0.3564(2)
H7 H 0.6623 0.7465 0.3704
C8 C 0.5000 0.7625(5) 0.3777(2)
O1 O 0.4075(3) 0.8869(3) 0.44047(15)
C6 C 0.4039(4) 0.6392(4) 0.31475(19)
H6 H 0.3380 0.6111 0.3013
C7 C 0.4038(4) 0.7200(4) 0.3564(2)
H7 H 0.3377 0.7465 0.3704
O1 O 0.5925(3) 0.1131(3) 0.44047(15)
C6 C 0.5961(4) 0.3608(4) 0.31475(19)
H6 H 0.6620 0.3889 0.3013
C7 C 0.5962(4) 0.2800(4) 0.3564(2)
H7 H 0.6623 0.2535 0.3704
O1 O 0.1131(3) 0.5925(3) 0.05953(15)
C6 C 0.3608(4) 0.5961(4) 0.18525(19)
H6 H 0.3889 0.6620 0.1987
C7 C 0.2800(4) 0.5962(4) 0.1436(2)
H7 H 0.2535 0.6623 0.1296
O1 O 0.8869(3) 0.4075(3) 0.05953(15)
C6 C 0.6392(4) 0.4039(4) 0.18525(19)
H6 H 0.6111 0.3380 0.1987
C7 C 0.7200(4) 0.4038(4) 0.1436(2)
H7 H 0.7465 0.3377 0.1296

#END
